omf/scratch/smartSwitching/trip37 xVoltDump.csv
# trip37 xVoltDump.csv run at 2000-01-01 00:00:00 EST on 111 nodes
node_name,voltA_real,voltA_imag,voltB_real,voltB_imag,voltC_real,voltC_imag
A_node781,2504.880000,-1446.193142,-2504.880000,-1446.193142,-44.880000,2814.651844
A_node702,2297.687705,-1460.545945,-2490.667839,-1492.383460,28.992134,2554.238416
A_node703,2268.945199,-1490.941114,-2488.650397,-1519.505014,36.486420,2504.130422
A_node704,2240.762173,-1437.571513,-2508.541988,-1483.887133,23.179862,2532.094595
A_node705,2299.847906,-1461.043786,-2487.855470,-1492.507874,32.085550,2551.803185
A_node706,2243.779981,-1430.399000,-2502.068900,-1470.783521,28.419124,2535.068412
A_node707,2241.754173,-1426.003918,-2503.654835,-1462.929063,26.917006,2539.094937
A_node708,2251.747848,-1512.033027,-2488.549187,-1538.947998,40.438093,2472.865408
A_node709,2256.920890,-1505.632652,-2488.074387,-1532.747112,39.671024,2481.944622
A_node710,2240.514435,-1526.880186,-2487.908567,-1553.455250,44.352240,2449.579493
A_node711,306.588175,-280.353588,-3481.576796,-1051.049710,-637.434871,2467.950873
A_load701,2372.234051,-1460.303245,-2482.959450,-1479.478038,17.937369,2625.426187
A_load712,2301.227427,-1461.893076,-2486.349325,-1493.418827,33.988955,2549.796945
A_load713,2275.627509,-1451.899310,-2496.639828,-1489.714233,28.309701,2543.400526
A_load714,2240.388240,-1437.626906,-2508.756971,-1483.901373,22.970229,2532.041837
A_load718,2238.659417,-1437.979984,-2509.758690,-1484.409199,22.044648,2531.581744
A_load720,2243.734848,-1432.331783,-2502.940619,-1473.693212,28.373992,2533.135629
A_load722,2241.492162,-1425.319636,-2503.812186,-1461.737294,26.723301,2539.731147
A_load724,2241.777373,-1425.110344,-2503.248281,-1461.584808,26.940205,2539.988512
A_load725,2243.801042,-1429.497035,-2501.662097,-1469.425665,28.440186,2535.970377
A_load727,2267.231775,-1492.001362,-2488.559902,-1520.400627,36.762967,2501.814019
A_load728,2263.938195,-1492.626139,-2489.058971,-1520.604612,36.197772,2499.838750
A_load729,2263.977483,-1493.129613,-2489.540649,-1521.212904,35.793569,2500.028739
A_load730,2260.163981,-1502.106479,-2487.959614,-1529.593962,39.201546,2487.145070
A_load731,2256.891070,-1504.210470,-2487.528456,-1530.579902,39.641204,2483.366804
A_load732,2252.680040,-1512.642693,-2487.531125,-1539.602426,41.708603,2471.450707
A_load733,2245.642615,-1517.823735,-2490.042051,-1544.494455,39.934653,2465.200894
A_load734,2237.413710,-1525.565085,-2491.550334,-1552.318859,40.083522,2453.511924
A_load735,2241.707778,-1527.623871,-2486.605612,-1554.253055,45.994811,2447.829143
A_load736,2240.509595,-1525.357779,-2487.283130,-1551.146568,44.347401,2451.101900
A_load737,2222.314279,-1531.566508,-2499.808003,-1558.545068,32.438693,2447.841750
A_load738,2215.866173,-1532.540482,-2503.601923,-1560.228647,28.934876,2446.319849
A_load740,307.884575,-280.735349,-3480.164966,-1051.453396,-635.463528,2466.752419
A_load741,307.304625,-280.381341,-3480.798124,-1051.073729,-636.265051,2467.590836
A_load742,2299.736705,-1460.309671,-2487.613770,-1491.392800,32.022408,2552.529985
A_load744,2264.425838,-1492.713075,-2489.335581,-1520.881734,35.984699,2500.332033
A_node775,225.692089,-150.563265,-248.807439,-153.274711,3.967102,248.194462
B_node781,2504.880000,-1446.193142,-2504.880000,-1446.193142,-44.880000,2814.651844
B_node702,1948.772006,-1235.177604,-2674.303073,-1403.809712,-99.237729,2568.210347
B_node703,2015.269409,-1299.285950,-2626.137547,-1434.599162,-59.485308,2535.812832
B_node704,1719.358342,-1119.755788,-2780.789215,-1365.545054,-167.605034,2537.664568
B_node705,1951.060302,-1235.510610,-2671.323720,-1403.759983,-95.936136,2565.999014
B_node706,1512.204844,-1011.618161,-2876.857190,-1327.122028,-230.520628,2514.572595
B_node707,1267.522190,-891.021709,-2997.405831,-1289.515042,-311.817224,2488.499672
B_node708,2080.148120,-1348.839399,-2586.357873,-1456.794544,-27.839569,2519.627917
B_node709,2061.904068,-1334.291203,-2597.169659,-1449.795477,-36.476952,2524.414326
B_node710,2133.300104,-1386.087596,-2554.681171,-1473.498856,-2.314299,2508.168872
B_node711,2214.326010,-1428.893029,-2519.423264,-1484.430505,17.684929,2523.141000
B_load701,2141.817674,-1311.873659,-2603.993361,-1421.358356,-66.262486,2634.841941
B_load712,1952.471764,-1236.285161,-2669.783510,-1404.589457,-93.947252,2564.102070
B_load713,1856.184758,-1188.632784,-2716.486684,-1388.876603,-125.416448,2554.049386
B_load714,1719.045113,-1119.797320,-2780.969271,-1365.540565,-167.782387,2537.628793
B_load718,1717.710865,-1120.060299,-2781.743967,-1365.926648,-168.498152,2537.279095
B_load720,1511.988452,-1013.375856,-2877.915619,-1329.695254,-230.737020,2512.814901
B_load722,1267.260178,-890.337426,-2997.563182,-1288.323273,-312.010929,2489.135882
B_load724,1267.671002,-890.026914,-2996.766885,-1288.069634,-311.668412,2489.494466
B_load725,1512.305827,-1010.797903,-2876.363256,-1325.921189,-230.419645,2515.392853
B_load727,2013.271248,-1300.383959,-2626.177725,-1435.577826,-59.297339,2533.478176
B_load728,2009.532823,-1301.114529,-2626.874037,-1435.973338,-60.018957,2531.407644
B_load729,2009.675806,-1301.593633,-2627.320333,-1436.527676,-60.401245,2531.613877
B_load730,2050.490904,-1325.681087,-2604.143681,-1446.147708,-41.885948,2526.923325
B_load731,2061.935963,-1332.843686,-2596.519691,-1447.615532,-36.445057,2525.861843
B_load732,2081.079120,-1349.412473,-2585.341419,-1457.409224,-26.554976,2518.274109
B_load733,2097.461173,-1362.814521,-2576.562541,-1463.178930,-20.486779,2516.195317
B_load734,2130.214268,-1384.878594,-2558.316483,-1472.469711,-6.589507,2511.912194
B_load735,2134.479355,-1386.791658,-2553.393866,-1474.253732,-0.677597,2506.490071
B_load736,2133.348799,-1384.557601,-2553.971467,-1471.200928,-2.265604,2509.698867
B_load737,2161.990775,-1407.442813,-2543.966410,-1480.572463,1.477050,2514.359296
B_load738,2184.840129,-1418.768533,-2533.630491,-1483.428881,7.792849,2517.910691
B_load740,2215.492643,-1429.602157,-2518.149625,-1485.190993,19.298593,2521.459375
B_load741,2215.042459,-1428.920782,-2518.644592,-1484.454524,18.854749,2522.780962
B_load742,1951.008990,-1234.744281,-2670.993850,-1402.614235,-95.946706,2566.759206
B_load744,2010.124162,-1301.177096,-2627.115265,-1436.196506,-60.210115,2531.917170
B_node775,206.190407,-133.429120,-259.716966,-144.979548,-3.647695,252.441433
C_node781,53.327999,-157.894101,-3665.875377,-1033.866642,-812.245426,2503.391579
C_node702,273.785527,-293.338249,-3525.066275,-1078.328766,-692.809661,2478.852393
C_node703,543.516707,-486.317726,-3375.225531,-1155.874994,-583.173255,2461.066992
C_node704,286.440332,-288.912173,-3507.692773,-1068.376023,-670.830366,2473.738321
C_node705,276.626766,-292.884225,-3521.362047,-1077.434001,-688.592762,2477.708392
C_node706,297.720796,-282.814741,-3492.118631,-1057.198118,-652.776676,2472.344991
C_node707,303.278924,-279.562312,-3485.179128,-1050.218318,-642.547376,2470.707820
C_node708,812.024122,-648.785880,-3230.296694,-1214.503907,-476.015841,2458.958048
C_node709,735.728515,-601.834854,-3270.933076,-1196.948437,-506.058859,2459.890921
C_node710,1162.027563,-840.628772,-3049.169879,-1276.778688,-346.502126,2475.283556
C_node711,992.552115,-785.693002,-3131.342029,-1275.219922,-400.535436,2439.302075
C_load701,53.327999,-157.894101,-3665.875377,-1033.866642,-812.245426,2503.391579
C_load712,278.176920,-293.310210,-3519.674131,-1077.883565,-686.222177,2476.325673
C_load713,280.336936,-291.907660,-3516.462323,-1074.658379,-681.717297,2475.530364
C_load714,286.290901,-288.912501,-3507.779227,-1068.318661,-670.921191,2473.750527
C_load718,286.021338,-288.907651,-3507.945504,-1068.361074,-671.074526,2473.712700
C_load720,297.324485,-284.300455,-3493.336619,-1059.284471,-653.172987,2470.859277
C_load722,303.016912,-278.878030,-3485.336479,-1049.026549,-642.741081,2471.344030
C_load724,303.569640,-278.478563,-3484.288202,-1048.697110,-642.256659,2471.791569
C_load725,297.905741,-282.121408,-3491.550237,-1056.224487,-652.591731,2473.038324
C_load727,534.788471,-486.713415,-3379.385767,-1157.613694,-586.533814,2458.292887
C_load728,520.341538,-486.563063,-3386.664604,-1159.510155,-593.059041,2455.212769
C_load729,523.254799,-487.284417,-3385.427519,-1159.647327,-591.999594,2455.655710
C_load730,687.942380,-573.046448,-3296.715511,-1186.776529,-524.937126,2459.917981
C_load731,736.032660,-600.166901,-3269.778987,-1194.547655,-505.754714,2461.558874
C_load732,813.048920,-649.185259,-3229.179814,-1214.929062,-474.500314,2457.849659
C_load733,887.294930,-695.337527,-3190.777192,-1231.634222,-447.488351,2459.133564
C_load734,1021.474099,-774.410519,-3120.513837,-1259.730378,-396.535354,2461.164646
C_load735,1163.296973,-841.165602,-3047.786047,-1277.351090,-344.643328,2473.841109
C_load736,1162.298286,-838.934440,-3048.055465,-1274.324049,-346.231403,2476.977888
C_load737,999.800572,-782.414866,-3130.236312,-1269.934870,-402.855954,2448.427887
C_load738,989.243656,-784.640666,-3134.945736,-1274.104877,-405.532128,2442.489370
C_load740,993.848120,-786.205293,-3129.929512,-1275.765436,-398.622000,2437.888446
C_load741,993.268565,-785.720755,-3130.563357,-1275.243941,-399.365617,2438.942038
C_load742,276.832886,-291.953024,-3520.649219,-1076.118770,-688.380022,2478.636814
C_load744,523.703154,-486.867879,-3385.222451,-1159.316157,-591.808464,2455.959004
C_node775,73.572852,-60.183485,-327.093308,-119.694844,-50.605886,245.989092
